tests/LineConstants.dss
new circuit.test

!OVERHEAD LINE CODES
new LineSpacing.500 nconds=4 nphases=3 units=ft x=[-4 -1 3 0] h=[28 28 28 24]
new LineSpacing.505 nconds=3 nphases=2 units=ft x=[-4 3 0] h=[28 28 24]
new LineSpacing.510 nconds=2 nphases=1 units=ft x=[0.5 0] h=[29 24]

new WireData.ACSR_556_5  DIAM=0.927  GMRac=0.37320  Rdc=0.035227273   Runits=kft Radunits=in gmrunits=in
new WireData.ACSR_4/0    DIAM=0.563  GMRac=0.09768  Rdc=0.112121212   Runits=kft Radunits=in gmrunits=in
new WireData.ACSR_1/0    DIAM=0.398  GMRac=0.05352  Rdc=0.212121212   Runits=kft Radunits=in gmrunits=in

!CABLE CODES
new WireData.CU_1/0 NormAmps=100 DIAM=0.368  GMRac=0.13356 Rac=0.607 Runits=mi Radunits=in gmrunits=in
new TSData.TS_1/0   NormAmps=165 DIAM=0.368  GMRac=0.13320 Rac=0.97  Runits=mi Radunits=in gmrunits=in
~                   EpsR=2.3 Ins=0.220 DiaIns=0.82 DiaCable=1.06 DiaShield=0.88 TapeLayer=0.005 TapeLap=20
new CNData.CN_250   NormAmps=260 DIAM=0.567  GMRac=0.20520 Rac=0.41  Runits=mi Radunits=in gmrunits=in
~                   EpsR=2.3 Ins=0.220 DiaIns=1.06 DiaCable=1.29 k=13 DiaStrand=0.0641 GmrStrand=0.02496 Rstrand=14.8722
new LineSpacing.515  nconds=3 nphases=3 units=ft x=[-0.5 0.0 0.5] h=[-4 -4 -4]
new LineSpacing.515x nconds=4 nphases=3 units=ft x=[-0.5 0.0 0.5 0.25] h=[-4 -4 -4]
new LineSpacing.520  nconds=2 nphases=1 units=ft x=[0.0 0.25] h=[-4 -4]
new LineSpacing.520x nconds=4 nphases=3 units=ft x=[0.0 0.25 0.75 0.50] h=[-4 -4 -4 -4]

new LineGeometry.ohd601 nconds=4 nphases=3 spacing=500 wires=[ACSR_556_5 ACSR_556_5 ACSR_556_5 ACSR_4/0] reduce=yes linetype=OH
new LineGeometry.ohd603 nconds=3 nphases=2 spacing=505 wires=[ACSR_1/0 ACSR_1/0 ACSR_1/0] reduce=yes linetype=OH
new LineGeometry.ohd605 nconds=2 nphases=1 spacing=510 wires=[ACSR_1/0 ACSR_1/0] reduce=yes linetype=OH

new LineGeometry.ts3 nconds=4 nphases=3 spacing=520x tscables=[TS_1/0 TS_1/0 TS_1/0] wires=[CU_1/0] reduce=yes linetype=UG_TS
new LineGeometry.cn3n nconds=4 nphases=3 spacing=515x cncables=[CN_250 CN_250 CN_250] wires=[CU_1/0] reduce=yes linetype=UG_CN
new LineGeometry.ts1 nconds=2 nphases=1 spacing=520 tscables=[TS_1/0] wires=[CU_1/0] reduce=yes linetype=UG_TS
new LineGeometry.cn3 nconds=3 nphases=3 spacing=515 cncables=[CN_250 CN_250 CN_250] reduce=yes linetype=UG_CN

show lineconstants 60 mi 100
